LAMMPS (2 Aug 2023)
units real
atom_style full

dimension 3
boundary p p p

pair_style lj/cut/coul/cut 15.0 15.0
pair_modify mix geometric

bond_style harmonic
angle_style harmonic
dihedral_style opls
improper_style cvff
special_bonds lj/coul 0.0 0.0 0.5

read_data MDA.dat
Reading data file ...
  orthogonal box = (-2.96157 -0.74222 -2.77692) to (47.03843 49.25778 47.22308)
  reading atoms ...
  29 atoms
  scanning bonds ...
  scanning angles ...
  scanning dihedrals ...
  scanning impropers ...
  reading bonds ...
  30 bonds
  reading angles ...
  48 angles
  reading dihedrals ...
  68 dihedrals
  reading impropers ...
  16 impropers
Finding 1-2 1-3 1-4 neighbors ...
     4 = max # of 1-2 neighbors
     7 = max # of 1-3 neighbors
    13 = max # of 1-4 neighbors
    16 = max # of special neighbors

#kspace_style    pppm 1e-5
#kspace_modify  slab 3.0

neighbor        1.0 bin
neigh_modify    delay 0 every 1 check yes

thermo          1000
thermo_style    custom step temp density press pxx pyy pzz pxy pxz pyz ke pe etotal vol lx ly lz

dump            1 all xyz 1000 dump_relax.xyz
#dump_modify     1 sort id

#NVT/NPT melt run
fix             1 all nvt temp 300 300 100
#fix             1 all npt temp 400 400 100 iso 1 1 1000
fix             2 all recenter 20.0 20.0 20.0
run             100000
Generated 55 of 55 mixed pair_coeff terms from geometric mixing rule
Step          Temp         Density         Press           Pxx            Pyy            Pzz            Pxy            Pxz            Pyz           KinEng         PotEng         TotEng         Volume           Lx             Ly             Lz
0   0              0.0026338671   119.92655      131.98415      63.621762      164.17372      25.269849      1.8174637      54.687748      0              60.690492      60.690492      125000         50             50             50
Averages over the last 51 of 101 rows, steps 50000 to 100000:
Temp Density Press Pxx Pyy Pzz Pxy Pxz Pyz KinEng PotEng TotEng Volume Lx Ly Lz
294.868 0.00263387 -1.58587 -3.22945 1.21501 -2.74317 -3.52567 0.526583 4.71546 24.6105 -17.2987 7.31181 125000 50 50 50
Loop time of 0.930767 on 1 procs for 100000 steps with 29 atoms

unfix           1
unfix           2
write_data      MDA_center.dat
System init for write_data ...
Generated 55 of 55 mixed pair_coeff terms from geometric mixing rule
