LAMMPS (2 Aug 2023)
units real
atom_style full

dimension 3
boundary p p p

pair_style lj/cut/coul/cut 15.0 15.0
pair_modify mix geometric

bond_style harmonic
angle_style harmonic
dihedral_style opls
improper_style cvff
special_bonds lj/coul 0.0 0.0 0.5

read_data DGEBA.dat
Reading data file ...
  orthogonal box = (-6.67908 -6.07739 -4.64866) to (43.32092 43.92261 45.35134)
  reading atoms ...
  49 atoms
  scanning bonds ...
  scanning angles ...
  scanning dihedrals ...
  scanning impropers ...
  reading bonds ...
  52 bonds
  reading angles ...
  94 angles
  reading dihedrals ...
  128 dihedrals
  reading impropers ...
  28 impropers
Finding 1-2 1-3 1-4 neighbors ...
     4 = max # of 1-2 neighbors
    10 = max # of 1-3 neighbors
    19 = max # of 1-4 neighbors
    22 = max # of special neighbors

#kspace_style    pppm 1e-5
#kspace_modify  slab 3.0

neighbor        1.0 bin
neigh_modify    delay 0 every 1 check yes

thermo          1000
thermo_style    custom step temp density press pxx pyy pzz pxy pxz pyz ke pe etotal vol lx ly lz

dump            1 all xyz 1000 dump_relax.xyz
#dump_modify     1 sort id

#NVT/NPT melt run
fix             1 all nvt temp 300 300 100
#fix             1 all npt temp 400 400 100 iso 1 1 1000
fix             2 all recenter 20.0 20.0 20.0
run             100000
Generated 55 of 55 mixed pair_coeff terms from geometric mixing rule
Step          Temp         Density         Press           Pxx            Pyy            Pzz            Pxy            Pxz            Pyz           KinEng         PotEng         TotEng         Volume           Lx             Ly             Lz
0   0              0.004522232    352.22364      269.47835      488.74934      298.44324      43.568035     -62.286491     -3.7148846      0              494.93829      494.93829      125000         50             50             50
Averages over the last 51 of 101 rows, steps 50000 to 100000:
Temp Density Press Pxx Pyy Pzz Pxy Pxz Pyz KinEng PotEng TotEng Volume Lx Ly Lz
306.249 0.00452223 -4.43678 -1.55395 -4.31624 -7.44015 7.11651 -2.66457 -1.39842 43.8178 132.753 176.57 125000 50 50 50
Loop time of 1.99228 on 1 procs for 100000 steps with 49 atoms

unfix           1
unfix           2
write_data      DGEBA_center.dat
System init for write_data ...
Generated 55 of 55 mixed pair_coeff terms from geometric mixing rule
