LAMMPS (2 Aug 2023)
units real
atom_style full

dimension 3
boundary p p p

pair_style lj/cut/coul/cut 15.0 15.0
pair_modify mix geometric

bond_style harmonic
angle_style harmonic
dihedral_style opls
improper_style cvff
special_bonds lj/coul 0.0 0.0 0.5

read_data pre_react.dat
Reading data file ...
  orthogonal box = (-6.67908 -6.07739 -4.64866) to (57.03843 59.25778 57.22308)
  reading atoms ...
  78 atoms
  reading velocities ...
  78 velocities
  scanning bonds ...
  scanning angles ...
  scanning dihedrals ...
  scanning impropers ...
  reading bonds ...
  82 bonds
  reading angles ...
  142 angles
  reading dihedrals ...
  196 dihedrals
  reading impropers ...
  44 impropers
Finding 1-2 1-3 1-4 neighbors ...
     4 = max # of 1-2 neighbors
    10 = max # of 1-3 neighbors
    19 = max # of 1-4 neighbors
    22 = max # of special neighbors

#kspace_style    pppm 1e-5
#kspace_modify  slab 3.0

neighbor        1.0 bin
neigh_modify    delay 0 every 1 check yes

thermo          1000
#thermo_style    custom step temp density press pxx pyy pzz pxy pxz pyz ke pe etotal vol lx ly lz

dump            1 all xyz 1000 dump_relax.xyz
#dump_modify     1 sort id

velocity all create 300.0 428459 dist gaussian

molecule mol1 rxn1_pre.data_template
Read molecule template mol1:
  1 molecules
  0 fragments
  24 atoms with max type 11
  24 bonds with max type 15
  39 angles with max type 33
  47 dihedrals with max type 44
  11 impropers with max type 19
molecule mol2 rxn1_post.data_template
Read molecule template mol2:
  1 molecules
  0 fragments
  24 atoms with max type 11
  24 bonds with max type 16
  39 angles with max type 31
  54 dihedrals with max type 45
  12 impropers with max type 18

fix rxns all bond/react stabilization yes statted_grp .03   react rxn1 all 1 0.0 5 mol1 mol2 rxn1_v2.map
dynamic group bond_react_MASTER_group defined
dynamic group statted_grp_REACT defined

fix 1 statted_grp_REACT npt temp 300 300 100 iso 1 1 1000
thermo_style custom step temp density f_rxns[1]

run             30000

CITE-CITE-CITE-CITE-CITE-CITE-CITE-CITE-CITE-CITE-CITE-CITE-CITE

Your simulation uses code contributions which should be cited:

- fix bond/react: reacter.org doi:10.1016/j.polymer.2017.09.038, doi:10.1021/acs.macromol.0c02012

@Article{Gissinger17,
 author = {J. R. Gissinger and B. D. Jensen and K. E. Wise},
 title = {Modeling Chemical Reactions in Classical Molecular Dynamics Simulations},
 journal = {Polymer},
 year =    2017,
 volume =  128,
 pages =   {211--217}
}

@Article{Gissinger20,
 author = {J. R. Gissinger, B. D. Jensen, K. E. Wise},
 title = {{REACTER}: A Heuristic Method for Reactive Molecular Dynamics},
 journal = {Macromolecules},
 year =    2020,
 volume =  53,
 number =  22,
 pages =   {9953--9961}
}

CITE-CITE-CITE-CITE-CITE-CITE-CITE-CITE-CITE-CITE-CITE-CITE-CITE

Generated 55 of 55 mixed pair_coeff terms from geometric mixing rule
Step          Temp         Density       f_rxns[1]
0   300            0.0034728675   0
Averages over the last 16 of 31 rows, steps 15000 to 30000:
Temp Density f_rxns[1]
289.624 0.04354 2
Loop time of 1.64659 on 1 procs for 30000 steps with 78 atoms

write_data      out.dat
System init for write_data ...
Generated 55 of 55 mixed pair_coeff terms from geometric mixing rule
