LAMMPS (2 Aug 2023)
units real
atom_style full

dimension 3
boundary p p p

pair_style lj/cut/coul/cut 15.0 15.0
pair_modify mix geometric

bond_style harmonic
angle_style harmonic
dihedral_style opls
improper_style cvff
special_bonds lj/coul 0.0 0.0 0.5

read_data DGEBA_center.dat extra/dihedral/per/atom 1
Reading data file ...
  orthogonal box = (-6.67908 -6.07739 -4.64866) to (43.32092 43.92261 45.35134)
  reading atoms ...
  49 atoms
  reading velocities ...
  49 velocities
  scanning bonds ...
  scanning angles ...
  scanning dihedrals ...
  scanning impropers ...
  reading bonds ...
  52 bonds
  reading angles ...
  94 angles
  reading dihedrals ...
  128 dihedrals
  reading impropers ...
  28 impropers
Finding 1-2 1-3 1-4 neighbors ...
     4 = max # of 1-2 neighbors
    10 = max # of 1-3 neighbors
    19 = max # of 1-4 neighbors
    22 = max # of special neighbors
read_data MDA_center.dat add append shift 10 10 10
Reading data file ...
  orthogonal box = (-6.67908 -6.07739 -4.64866) to (57.03843 59.25778 57.22308)
  reading atoms ...
  29 atoms
  reading velocities ...
  29 velocities
  scanning bonds ...
  scanning angles ...
  scanning dihedrals ...
  scanning impropers ...
  reading bonds ...
  30 bonds
  reading angles ...
  48 angles
  reading dihedrals ...
  68 dihedrals
  reading impropers ...
  16 impropers
Finding 1-2 1-3 1-4 neighbors ...
     4 = max # of 1-2 neighbors
    10 = max # of 1-3 neighbors
    19 = max # of 1-4 neighbors
    22 = max # of special neighbors

#kspace_style    pppm 1e-5
#kspace_modify  slab 3.0

neighbor        1.0 bin
neigh_modify    delay 0 every 1 check yes

thermo          1000
thermo_style    custom step temp density press pxx pyy pzz pxy pxz pyz ke pe etotal vol lx ly lz

dump            1 all xyz 1000 dump_relax.xyz
#dump_modify     1 sort id

#NVT/NPT melt run
fix             1 all nvt temp 300 300 100
#fix             1 all npt temp 400 400 100 iso 0 0 1000
fix             2 all recenter 20.0 20.0 20.0
run             10000
Generated 55 of 55 mixed pair_coeff terms from geometric mixing rule
Step          Temp         Density         Press           Pxx            Pyy            Pzz            Pxy            Pxz            Pyz           KinEng         PotEng         TotEng         Volume           Lx             Ly             Lz
0   285.38175      0.0034728675   2.3072899     -6.4293943     -44.973324      58.324587      4.7931861     -28.932105     -12.512244      65.501496      115.66227      181.16377      257571.7       63.71751       65.33517       61.87174
Averages over the last 6 of 11 rows, steps 5000 to 10000:
Temp Density Press Pxx Pyy Pzz Pxy Pxz Pyz KinEng PotEng TotEng Volume Lx Ly Lz
284.772 0.00347287 -4.54314 -2.64111 17.5679 -28.5562 -4.51651 25.3536 7.26905 65.3616 119.404 184.765 257572 63.7175 65.3352 61.8717
Loop time of 0.320597 on 1 procs for 10000 steps with 78 atoms

unfix           1
unfix           2
write_data      pre_react.dat
System init for write_data ...
Generated 55 of 55 mixed pair_coeff terms from geometric mixing rule
